*Heading
** Job name: DamJob Model name: Model-1
** Generated by: Abaqus/CAE Student Edition 2020
*Preprint, echo=NO, model=NO, history=NO, contact=NO
**
** PARTS
**
*Part, name=Part-1
*Node
      1,          10.,          45.
      2,           0.,          45.
      3,           0.,   35.0999985
      4,           0.,           0.
      5,          10.,           0.
      6,          25.,           0.
      7,          10.,          35.
      8,   6.66666651,          45.
      9,   3.33333325,          45.
     10,           0.,   41.7000008
     11,           0.,   38.4000015
     12,           0.,   32.1749992
     13,           0.,        29.25
     14,           0.,   26.3250008
     15,           0.,   23.3999996
     16,           0.,   20.4750004
     17,           0.,   17.5499992
     18,           0.,       14.625
     19,           0.,   11.6999998
     20,           0.,   8.77499962
** ... 89 like lines cut
*Element, type=CPS3
  1, 108,  74,  71
  2,  96,   9,  69
  3,  94,  70,  43
  4,  44,  43,  12
  5,  58,  55,  32
  6,  69,   9,  10
  7,   9,   2,  10
  8,  69,  10,  11
  9,  70,   3,  43
 10,  49,  44,  13
 11,  50,  15,  48
 12,  51,  48,  16
 13,  53,  18,  19
 14,  53,  19,  45
 15,  60,  35,  34
 16,  68,  27,  67
 17, 103,  87,  85
 18,  46,  45,  20
 19,  47,  22,  23
 20,  22,   4,  23
** ... 154 like lines cut
*Nset, nset=Set-1, generate
   1,  109,    1
*Elset, elset=Set-1, generate
   1,  174,    1
** Section: Section-1
*Solid Section, elset=Set-1, material=Concrete
1.,
*End Part
**  
**
** ASSEMBLY
**
*Assembly, name=Assembly
**  
*Instance, name=Part-1-1, part=Part-1
*End Instance
**  
*Nset, nset=Set-1, instance=Part-1-1
  4,  5,  6, 23, 24, 25, 26, 27, 28
*Elset, elset=Set-1, instance=Part-1-1
  20,  23,  49,  79,  88,  90,  92, 100
*Nset, nset=Set-2, instance=Part-1-1
  4,  5,  6, 23, 24, 25, 26, 27, 28
*Elset, elset=Set-2, instance=Part-1-1
  20,  23,  49,  79,  88,  90,  92, 100
*Elset, elset=_Surf-1_S2, internal, instance=Part-1-1
 13, 41, 42, 43, 45, 46, 47, 51, 52, 53, 57
*Elset, elset=_Surf-1_S1, internal, instance=Part-1-1
 20,
*Surface, type=ELEMENT, name=Surf-1
_Surf-1_S2, S2
_Surf-1_S1, S1
*Elset, elset=_Surf-2_S2, internal, instance=Part-1-1
 13, 41, 42, 43, 45, 46, 47, 51, 52, 53, 57
*Elset, elset=_Surf-2_S1, internal, instance=Part-1-1
 20,
*Surface, type=ELEMENT, name=Surf-2
_Surf-2_S2, S2
_Surf-2_S1, S1
*Elset, elset=_Surf-3_S2, internal, instance=Part-1-1
 13, 41, 42, 43, 45, 46, 47, 51, 52, 53, 57
*Elset, elset=_Surf-3_S1, internal, instance=Part-1-1
 20,
*Surface, type=ELEMENT, name=Surf-3
_Surf-3_S2, S2
_Surf-3_S1, S1
*End Assembly
** 
** MATERIALS
** 
*Material, name=Concrete
*Density
2400.,
*Elastic
 2.4e+10, 0.2
** ----------------------------------------------------------------
** 
** STEP: Dam
** 
*Step, name=Dam, nlgeom=NO
*Static
1., 1., 1e-05, 1.
** 
** BOUNDARY CONDITIONS
** 
** Name: BC-1 Type: Displacement/Rotation
*Boundary
Set-2, 1, 1
Set-2, 2, 2
Set-2, 6, 6
** 
** LOADS
** 
** Name: Gravity   Type: Gravity
*Dload
, GRAV, 9.81, 0., -1.
** Name: SimplePressure   Type: Pressure
*Dsload
Surf-3, P, 1e+06
** 
** OUTPUT REQUESTS
** 
*Restart, write, frequency=0
** 
** FIELD OUTPUT: F-Output-1
** 
*Output, field, variable=PRESELECT
** 
** HISTORY OUTPUT: H-Output-1
** 
*Output, history, variable=PRESELECT
*End Step
